% --------------------------- 控制参数模板 ---------------------------
% 该模板会在运行前由 Python 自动填充关键变量

MATH_PROBLEM= DIRECT
RESTART_SOL= NO
SYSTEM_MEASUREMENTS= SI

MARKER_MONITORING= ( AIRFOIL )
MARKER_PLOTTING= ( AIRFOIL )
MARKER_ANALYZE= ( AIRFOIL )

SOLVER= RANS
KIND_TURB_MODEL= SA

MACH_NUMBER= {mach_number}
AOA= {angle_of_attack}
REYNOLDS_NUMBER= {reynolds_number}
FREESTREAM_TEMPERATURE= 293.15
FREESTREAM_PRESSURE= 101325.0
FREESTREAM_VELOCITY= 15.0

REFERENCE_AREA= {reference_area}
REFERENCE_LENGTH= {reference_length}

GEO_MODE= DESIGN
MESH_FILENAME= {mesh_file}
SOLUTION_FILENAME= {solution_file}
HISTORY_OUTPUT= {history_file}
RESTART_FILENAME= {restart_file}

CFL_NUMBER= 3.0
CFL_ADAPT= YES
CFL_ADAPT_PARAM= ( 0.5, 1.5, 1.1, 0.8 )
MAX_ITER= 500

CONV_CRITERIA= RESIDUAL
RESIDUAL_REDUCTION= 5

OUTPUT_FORMAT= TECPLOT
VOLUME_FILENAME= {volume_file}
SURFACE_FILENAME= {surface_file}
SCREEN_OUTPUT= YES

MARKER_EULER= ( AIRFOIL )
MARKER_FAR= ( FARFIELD, 100 )

INC_ROT_AXIS= ( 0.0, 0.0, 1.0 )
INC_ROT_CENTER= ( 0.0, 0.0, 0.0 )

% --------------------------- 结束 ---------------------------
