% ------------------- DIRECT, ADJOINT, DESIGN, OPTIMIZATION -------------------%

MATH_PROBLEM= DIRECT
RESTART_SOL= NO

% --------------------------- INPUT/OUTPUT FILES ------------------------------%

MESH_FILENAME= {mesh_filename}
MESH_FORMAT= SU2
RESTART_FILENAME= restart_flow.dat

CONV_FILENAME= history.csv
HISTORY_OUTPUT= CSV
VOLUME_FILENAME= flow.vtu
SURFACE_FILENAME= surface.vtu

% --------------------- COMPRESSIBLE FREE-STREAM DEFINITION -------------------%

MACH_NUMBER= {mach_number}
AOA= {angle_of_attack}
SIDESLIP_ANGLE= 0.0
FREESTREAM_PRESSURE= 101325.0
FREESTREAM_TEMPERATURE= 288.15
GAS_CONSTANT= 287.058
GAMMA_VALUE= 1.4

% --------------------------- REFERENCE VALUES --------------------------------%

REF_ORIGIN_MOMENT_X = 0.0
REF_ORIGIN_MOMENT_Y = 0.0
REF_ORIGIN_MOMENT_Z = 0.0
REF_LENGTH = {reference_length}
REF_AREA = {reference_area}
REF_DENSITY= 1.225

% -------------------- FLOW NUMERICAL METHOD DEFINITION -----------------------%

NUM_METHOD_GRAD= GREEN_GAUSS
NUM_METHOD_FLOW= ROE
CFL_NUMBER= 5.0
CFL_ADAPT= YES
CFL_ADAPT_PARAM= ( 1.5, 0.5, 5.0, 100.0 )
VENKAT_LIMITER_COEFF= 0.05
JST_SENSOR_COEFF= ( 0.5, 0.02 )
TIME_STEP= 1e-05

% ----------------------- CONVERGENCE PARAMETERS ------------------------------%

ITER= 1500
CONV_RESIDUAL_MINVAL= -14
CONV_STARTITER= 50
SCREEN_OUTPUT= ( INNER_ITER, RMS_DENSITY, RMS_MOMENTUM-X, RMS_MOMENTUM-Y, LIFT, DRAG, CFL_NUMBER )

% -------------------- BOUNDARY CONDITION DEFINITION --------------------------%

MARKER_EULER= ( FARFIELD )
MARKER_FAR= ( SYMMETRY )
MARKER_PLOTTING= ( AIRCRAFT )
MARKER_MONITORING= ( AIRCRAFT )

% --------------------------- GRID DEFORMATION --------------------------------%

DEFORM_MESH= NO

